21
GAMESS-US optimization output to be used by R.E.D.
C         -4.71300        1.29900       -0.21200
H         -5.14600        1.14600       -1.20100
H         -3.86900        1.97800       -0.33500
C         -4.22800       -0.02800        0.34800
H         -3.81800        0.14800        1.33900
H         -5.08900       -0.67900        0.47900
C         -3.18500       -0.70900       -0.53800
H         -3.60100       -0.87200       -1.53100
H         -2.33200       -0.04600       -0.67100
C         -2.70200       -2.04200        0.03100
H         -1.96300       -2.50400       -0.61700
H         -2.24900       -1.90900        1.00900
H         -3.52700       -2.74100        0.14400
O         -5.65800        1.83500        0.66900
H         -5.97200        2.66600        0.32900
C         -7.93700       -0.38600       -1.01700
H         -8.38000        0.46000       -1.53300
H         -8.36800       -0.46400       -0.02300
H         -8.16800       -1.28700       -1.56500
O         -6.53500       -0.28100       -0.96800
H         -6.28800        0.49100       -0.47900
