21
Converted from conformer_03_opt.log by coffe
  C    -4.295631977300     1.392994698300    -0.384536479500
  H    -4.028997353100     1.543605662500    -1.427884328600
  H    -3.623378995500     1.995505176600     0.221683650900
  C    -4.169165534000    -0.074140236300    -0.014871440300
  H    -4.463835926600    -0.193097850400     1.024566914200
  H    -4.876603898600    -0.642324243800    -0.611288968800
  C    -2.753352671900    -0.614016357000    -0.223159534400
  H    -2.463279648300    -0.481133862500    -1.263210958000
  H    -2.049699776300    -0.031820033200     0.368492115700
  C    -2.626993836800    -2.090402976200     0.150444532000
  H    -1.615161510500    -2.449573101700    -0.008464419700
  H    -2.876263706200    -2.252421523100     1.195098767800
  H    -3.294897785200    -2.702936472800    -0.447714193500
  O    -5.631733073000     1.794635183400    -0.161763161200
  H    -5.731653686400     2.711919477800    -0.376041708200
  C    -8.479133985500    -0.501719546900    -0.622611871400
  H    -9.134460940200     0.278212775000    -0.239076182000
  H    -8.014125455500    -1.003047186600     0.223932779800
  H    -9.087608660800    -1.223932156000    -1.151455363700
  O    -7.536587496200    -0.001853162400    -1.521670496900
  H    -6.975434082000     0.620545735100    -1.072469654300
