21
Converted from conformer_01_opt.log by coffe
  C    -4.712731883800     1.298922491700    -0.211950140300
  H    -5.146468950300     1.146307431600    -1.200538182200
  H    -3.868537660800     1.977733408900    -0.335319006100
  C    -4.228250852100    -0.027788254700     0.347781188500
  H    -3.818132799300     0.147853016400     1.338998639100
  H    -5.088530834600    -0.679229903600     0.478767110200
  C    -3.184764417500    -0.708801267200    -0.538487393900
  H    -3.600758404400    -0.872408530400    -1.530734540800
  H    -2.331709852900    -0.046231268300    -0.671301952700
  C    -2.702365751500    -2.042453184700     0.031259021600
  H    -1.963256433700    -2.503828404100    -0.616622157100
  H    -2.248701718100    -1.908705117600     1.009142817300
  H    -3.526787981900    -2.740789959300     0.143634510800
  O    -5.657662145300     1.835147107000     0.668625176100
  H    -5.971727480700     2.665935056300     0.329078556600
  C    -8.198457479500     4.193232301200    -0.530361210800
  H    -8.627658528200     5.040475900400    -1.056046041700
  H    -8.703516119300     4.070600588300     0.422529365300
  H    -8.353610485200     3.302484864200    -1.121114688200
  O    -6.809526797900     4.342160138600    -0.366804053700
  H    -6.628843423000     5.106383585200     0.162462982100
