19
Converted from 2_4_5-trichlorophenoxyacetic_acid-psi_opt.inp.log by coffe
  C     1.243399291898    -0.553304753830    -0.656857699379
  O     1.246782915789     1.784349833317    -0.148736915122
  C     0.577654087661     0.619236185079    -0.322255077332
  C    -0.801757659939     0.605476447904    -0.231665726403
  H    -1.311138293380     1.515943210861     0.010139477514
  O     1.373815893399     2.936697218061     3.210593379737
  C    -1.515528962624    -0.558856951074    -0.455003588945
  C    -0.844212180534    -1.729174183837    -0.774561118910
  C     0.536187803230    -1.718095041867    -0.876558869857
  H     1.056679496133    -2.618892449622    -1.134392977456
  C     1.858954917838     2.017265701450     1.088742882578
  H     2.725953945504     2.635499721663     0.902722282821
  H     2.197169456572     1.102477419222     1.555750206032
  C     1.001084537240     2.753328395186     2.099171577843
  O    -0.158825556607     3.187808520239     1.636912058035
  H    -0.602691491978     3.649544118606     2.342953794063
 CL    -1.678115026526    -3.219221952626    -1.061967749856
 CL     2.970184732155    -0.569058744701    -0.825608593193
 CL    -3.240747436280    -0.503130563933    -0.323376855016
