19
Converted from 245_T_conf4_opt.log by coffe
  C     1.251381144312    -0.560982343778    -0.652103421092
  O     1.352066294040     1.793580281435    -0.213139632918
  C     0.639643440366     0.649864581174    -0.356214545326
  C    -0.739268030756     0.703323156542    -0.277314141143
  H    -1.210806435335     1.645380979617    -0.075859343719
  O     0.688072646708     3.771544436609     2.067241499874
  C    -1.507691025358    -0.430777542410    -0.469251807609
  C    -0.889715870976    -1.640542100672    -0.747362388132
  C     0.490097263286    -1.696875167758    -0.840996113486
  H     0.968595506776    -2.628485188017    -1.069018993790
  C     1.981461380985     2.041467346266     1.025914531833
  H     2.737931114104     2.783487032826     0.830934835085
  H     2.430828119818     1.143965524431     1.424099059375
  C     0.986519027973     2.626360810964     2.016458089542
  O     0.468909910845     1.701466220296     2.815697585219
  H    -0.160749504033     2.117201900833     3.398283382466
 CL    -1.791273428645    -3.098046848699    -0.994527592096
 CL     2.975546055842    -0.663187813395    -0.815940817115
 CL    -3.228498730220    -0.288990401012    -0.352208310254
