19
Converted from 245_T_conf10_opt.log by coffe
  C     0.628820198519    -0.843203156885    -0.913992629829
  O     1.643694725914     0.617171083613     0.597884696229
  C     0.508114458456     0.110915291267     0.100254600365
  C    -0.757270438360     0.470910412826     0.524184630055
  H    -0.894365916239     1.197573330088     1.298198794245
  O     4.006163427778     1.538070069143     1.492990755080
  C    -1.888476812419    -0.102444588959    -0.044634234591
  C    -1.763177333836    -1.043138711388    -1.044844933989
  C    -0.492280971042    -1.406819398322    -1.472831975493
  H    -0.386152381127    -2.137477035360    -2.249997037638
  C     1.597629911095     1.569803884410     1.608036023636
  H     1.112138470434     1.186951390164     2.499542654698
  H     1.071322132583     2.464607342012     1.292773128605
  C     3.012986272935     1.957650709318     1.970788377492
  O     2.979515481710     2.870300721308     2.938130587638
  H     3.874040682745     3.109932768810     3.161583960173
 CL    -3.133652111779    -1.793479236160    -1.792921926502
 CL     2.193439950440    -1.323614820946    -1.475495522786
 CL    -3.435012910170     0.405699740884     0.545677029160
