15
Converted from butanol_03_opt.log by coffe
  C    -1.103426334780    -0.616840226742     0.598721917086
  H    -0.789220099410    -1.655216941243     0.683175492438
  H    -1.857023172790    -0.588477595108    -0.185734274002
  C    -1.732990735624    -0.172121353565     1.918364201957
  H    -2.089488708919     0.851928635962     1.856085212357
  H    -1.014214692511    -0.222267842446     2.731072125714
  H    -2.576964984056    -0.801476446115     2.182885351612
  C     0.720224271344    -0.189598707880    -1.117850413839
  H    -0.017355460102    -0.146492515449    -1.918148485694
  H     1.059171122593    -1.221946655185    -1.042141848205
  O     1.799279716653     0.665908510747    -1.393616844024
  H     2.207603725745     0.410835911913    -2.208556657027
  C     0.090756150539     0.247922348668     0.192839203863
  H    -0.215406494675     1.286068077887     0.096331312905
  H     0.853551139348     0.218174841994     0.966179213513
