6
Converted from molecule-2-psi.inp.log by coffe
  C    -0.719743990292     0.012301564546     0.005658769153
  H    -1.074916777877     1.038032036332    -0.018183723069
  H    -1.106621706473    -0.459864178762     0.901864569381
  H    -1.121239107053    -0.505833948326    -0.858132438726
  O     0.681563884978    -0.064329684129    -0.003984221719
  H     1.055732526594     0.802152239195    -0.029693912495
